Version 4
SHEET 1 880 788
WIRE 64 48 0 48
WIRE 240 48 144 48
WIRE 336 48 240 48
WIRE 480 48 400 48
WIRE 624 48 480 48
WIRE 240 80 240 48
WIRE 0 96 0 48
WIRE 480 96 480 48
WIRE 624 96 624 48
WIRE 192 160 160 160
WIRE 0 208 0 176
WIRE 240 208 240 176
WIRE 240 208 0 208
WIRE 480 208 480 160
WIRE 480 208 240 208
WIRE 624 208 624 176
WIRE 624 208 480 208
WIRE 128 288 48 288
WIRE 416 288 352 288
WIRE 512 288 416 288
WIRE 48 304 48 288
WIRE 352 304 352 288
WIRE 512 384 512 288
WIRE 448 432 400 432
WIRE 352 496 352 384
WIRE 400 496 400 432
WIRE 400 496 352 496
WIRE 512 496 512 480
WIRE 560 496 512 496
WIRE 672 496 640 496
WIRE 512 512 512 496
WIRE 400 560 400 496
WIRE 448 560 400 560
WIRE 352 624 352 496
WIRE 304 704 272 704
WIRE 352 736 352 720
WIRE 416 736 352 736
WIRE 512 736 512 608
WIRE 512 736 416 736
WIRE 416 768 416 736
FLAG 0 208 0
FLAG 48 384 0
FLAG 128 288 PWM
FLAG 672 496 G
FLAG 160 160 G
FLAG 0 48 Vbat
FLAG 416 288 Vbat
FLAG 416 768 0
FLAG 272 704 PWM
SYMBOL nmos 192 80 R0
SYMATTR InstName M1
SYMATTR Value AP9465GEM
SYMBOL voltage 0 80 R0
WINDOW 123 0 0 Left 0
WINDOW 39 0 0 Left 0
SYMATTR InstName V1
SYMATTR Value 12V
SYMBOL ind 48 64 R270
WINDOW 0 32 56 VTop 2
WINDOW 3 5 56 VBottom 2
SYMATTR InstName L1
SYMATTR Value 3.7m
SYMBOL diode 336 64 R270
WINDOW 0 32 32 VTop 2
WINDOW 3 0 32 VBottom 2
SYMATTR InstName D1
SYMATTR Value MMSD4148
SYMBOL cap 464 96 R0
SYMATTR InstName C1
SYMATTR Value 220µ
SYMBOL res 608 80 R0
SYMATTR InstName R1
SYMATTR Value 50
SYMBOL voltage 48 288 R0
WINDOW 123 0 0 Left 0
WINDOW 39 0 0 Left 0
WINDOW 3 -118 140 Left 2
SYMATTR Value PULSE(0 12 0 1n 1n 125u 250u)
SYMATTR InstName V2
SYMBOL npn 448 384 R0
SYMATTR InstName Q1
SYMATTR Value 2N5210
SYMBOL pnp 448 608 M180
SYMATTR InstName Q2
SYMATTR Value 2N5087
SYMBOL res 656 480 R90
WINDOW 0 0 56 VBottom 2
WINDOW 3 32 56 VTop 2
SYMATTR InstName R2
SYMATTR Value 33
SYMBOL res 336 288 R0
SYMATTR InstName R3
SYMATTR Value 2K
SYMBOL nmos 304 624 R0
SYMATTR InstName M2
SYMATTR Value BSZ060NE2LS
TEXT 48 472 Left 2 !.tran 100m
